[TITLE]
Northwest System

[JUNCTIONS]
;ID              	Elev        	Demand      	Pattern         
 1               	57.410000   	0.691536    	1               	;
 10              	60.550000   	0.579578    	1               	;
 100             	50.980000   	0.022409    	1               	;
 101             	50.000000   	0           	                	;
 102             	51.690000   	0           	                	;
 103             	50.000000   	0.064344    	1               	;
 104             	50.000000   	0.060408    	1               	;
 105             	51.570000   	0           	                	;
 106             	50.000000   	1.410714    	1               	;
 107             	50.000000   	2.042610    	1               	;
 108             	50.000000   	0.415022    	1               	;
 109             	50.000000   	2.221753    	1               	;
 11              	60.000000   	0.399167    	1               	;
 110             	50.000000   	0.862055    	1               	;
 111             	50.000000   	2.216183    	1               	;
 112             	50.000000   	1.337744    	1               	;
 113             	50.000000   	1.882563    	1               	;
 114             	50.000000   	0.586161    	1               	;
 115             	52.180000   	2.556629    	1               	;
 116             	55.000000   	4.990661    	1               	;
 117             	54.410000   	0.873112    	1               	;
 118             	55.970000   	1.650101    	1               	;
 119             	53.320000   	1.707783    	1               	;
 12              	60.000000   	0.910885    	1               	;
 120             	50.000000   	1.004670    	1               	;
 121             	53.610000   	1.035691    	1               	;
 122             	55.000000   	1.012517    	1               	;
 123             	50.000000   	0.167431    	1               	;
 124             	50.000000   	1.271465    	1               	;
 125             	47.500000   	1.131451    	1               	;
 126             	52.280000   	1.538892    	1               	;
 127             	50.450000   	1.346688    	1               	;
 128             	57.500000   	0.077334    	1               	;
 129             	52.030000   	0           	                	;
 13              	58.400000   	0.767079    	1               	;
 130             	53.210000   	0           	                	;
 131             	54.150000   	0           	                	;
 132             	49.900000   	4.512356    	1               	;
 133             	55.000000   	0.584280    	1               	;
 134             	55.000000   	1.252444    	1               	;
 135             	55.000000   	0.471670    	1               	;
 136             	55.000000   	0.401307    	1               	;
 137             	55.000000   	1.055445    	1               	;
 138             	55.000000   	0.094391    	1               	;
 139             	55.000000   	0.413253    	1               	;
 14              	61.650000   	1.667439    	1               	;
 140             	55.000000   	0.634922    	1               	;
 141             	55.000000   	1.140174    	1               	;
 142             	55.000000   	0.476996    	1               	;
 143             	55.000000   	2.850334    	1               	;
 144             	55.000000   	0.475555    	1               	;
 145             	55.000000   	0.514005    	1               	;
 146             	55.000000   	0.540639    	1               	;
 147             	55.000000   	0.109859    	1               	;
 148             	55.000000   	0.163034    	1               	;
 149             	55.000000   	0.408208    	1               	;
 15              	58.850000   	0.370353    	1               	;
 150             	55.000000   	0.539877    	1               	;
 151             	55.000000   	1.261013    	1               	;
 152             	55.000000   	1.308053    	1               	;
 153             	55.000000   	0.382484    	1               	;
 154             	55.000000   	0.959954    	1               	;
 155             	55.000000   	1.577588    	1               	;
 156             	55.000000   	1.271654    	1               	;
 157             	55.000000   	0           	                	;
 158             	55.000000   	0.982988    	1               	;
 159             	55.000000   	6.690517    	1               	;
 16              	60.000000   	0.203790    	1               	;
 160             	55.000000   	1.242701    	1               	;
 161             	55.000000   	2.865356    	1               	;
 162             	55.000000   	1.434583    	1               	;
 163             	55.000000   	1.165423    	1               	;
 164             	55.000000   	2.214606    	1               	;
 165             	55.000000   	0.523221    	1               	;
 166             	55.000000   	0.439432    	1               	;
 167             	55.000000   	0.517999    	1               	;
 168             	55.000000   	0.028873    	1               	;
 169             	55.000000   	0.667877    	1               	;
 17              	59.710000   	1.012998    	1               	;
 170             	55.000000   	2.294172    	1               	;
 171             	55.000000   	3.448541    	1               	;
 172             	54.160000   	4.901935    	1               	;
 173             	58.170000   	50.994406   	1               	;
 174             	55.000000   	4.180334    	1               	;
 175             	55.000000   	0.883968    	1               	;
 176             	55.000000   	0.202052    	1               	;
 177             	55.000000   	0.796302    	1               	;
 178             	55.000000   	1.050931    	1               	;
 179             	55.000000   	0.299573    	1               	;
 18              	60.000000   	1.423981    	1               	;
 180             	55.000000   	1.641163    	1               	;
 181             	55.000000   	0           	                	;
 182             	55.000000   	0.877800    	1               	;
 183             	55.000000   	0.551338    	1               	;
 184             	55.000000   	1.827766    	1               	;
 1847            	50.850000   	0.282320    	1               	;
 1848            	50.800000   	0.225180    	1               	;
 1849            	58.750000   	0.908926    	1               	;
 185             	55.000000   	2.953572    	1               	;
 1850            	56.920000   	0.666823    	1               	;
 1851            	62.890000   	0.373050    	1               	;
 1852            	61.820000   	0.390175    	1               	;
 1853            	60.000000   	0.313434    	1               	;
 1854            	66.120000   	0.145634    	1               	;
 1855            	61.750000   	1.332539    	1               	;
 1856            	60.000000   	0           	                	;
 1857            	60.000000   	0.001746    	1               	;
 1858            	62.030000   	3.086642    	1               	;
 1859            	60.000000   	0.893319    	1               	;
 186             	55.000000   	1.118312    	1               	;
 1860            	60.000000   	0.143307    	1               	;
 1861            	60.000000   	0           	                	;
 1862            	60.000000   	0.016766    	1               	;
 1863            	60.000000   	0           	                	;
 1864            	60.000000   	0           	                	;
 1865            	58.110000   	1.335686    	1               	;
 1866            	55.000000   	1.741469    	1               	;
 1867            	59.070000   	2.104497    	1               	;
 1868            	57.820000   	1.961970    	1               	;
 1869            	57.360000   	0.796128    	1               	;
 187             	55.000000   	1.442928    	1               	;
 1870            	55.000000   	1.057740    	1               	;
 1871            	60.000000   	0           	                	;
 1872            	60.000000   	0           	                	;
 1873            	60.000000   	2.615482    	1               	;
 1874            	60.000000   	2.520521    	1               	;
 1875            	61.270000   	2.681194    	1               	;
 1876            	57.870000   	0.768743    	1               	;
 1877            	56.480000   	0.133689    	1               	;
 1878            	55.740000   	0           	                	;
 1879            	55.000000   	0.109153    	1               	;
 188             	55.000000   	0.947903    	1               	;
 1880            	55.000000   	0           	                	;
 189             	55.000000   	1.007731    	1               	;
 19              	60.000000   	2.887878    	1               	;
 190             	55.000000   	2.312919    	1               	;
 1907            	60.000000   	1.183514    	1               	;
 1908            	60.000000   	0.443377    	1               	;
 1909            	62.120000   	0.718566    	1               	;
 191             	55.000000   	1.255724    	1               	;
 1910            	50.000000   	1.602581    	1               	;
 192             	55.000000   	2.098306    	1               	;
 1924            	50.000000   	1.563475    	1               	;
 1925            	58.040000   	2.176735    	1               	;
 1927            	55.000000   	0           	                	;
 1928            	55.000000   	0           	                	;
 1929            	55.000000   	0.331111    	1               	;
 193             	55.000000   	1.875237    	1               	;
 1930            	55.000000   	0           	                	;
 1935            	52.010000   	1.591755    	1               	;
 1936            	55.720000   	1.478890    	1               	;
 1937            	52.470000   	0.493052    	1               	;
 1938            	55.000000   	1.898175    	1               	;
 1939            	50.000000   	0.972233    	1               	;
 194             	55.000000   	1.663287    	1               	;
 1943            	59.930000   	1.287503    	1               	;
 1944            	57.500000   	0.825934    	1               	;
 1945            	50.000000   	1.008931    	1               	;
 1946            	58.830000   	1.099113    	1               	;
 1947            	56.210000   	0.693141    	1               	;
 1948            	52.850000   	0.723807    	1               	;
 1949            	54.180000   	0.510472    	1               	;
 195             	55.000000   	2.132122    	1               	;
 1950            	53.560000   	1.322884    	1               	;
 1952            	50.000000   	1.551601    	1               	;
 1954            	55.620000   	0.370896    	1               	;
 1955            	50.000000   	0.250122    	1               	;
 1956            	50.000000   	0.119011    	1               	;
 1957            	50.000000   	0.462548    	1               	;
 1958            	50.370000   	0.340275    	1               	;
 1959            	55.000000   	0.330709    	1               	;
 196             	55.000000   	1.482370    	1               	;
 1960            	50.000000   	1.354894    	1               	;
 1961            	50.000000   	1.423556    	1               	;
 1962            	52.160000   	0.595549    	1               	;
 1963            	53.680000   	0.448792    	1               	;
 1964            	57.500000   	0.112621    	1               	;
 1965            	55.000000   	0.079045    	1               	;
 1966            	55.000000   	0.182153    	1               	;
 1967            	59.120000   	1.252521    	1               	;
 1968            	59.790000   	0.408198    	1               	;
 1969            	57.500000   	0.629810    	1               	;
 197             	55.000000   	0.633110    	1               	;
 1970            	54.970000   	1.670674    	1               	;
 1974            	55.000000   	0.595066    	1               	;
 1975            	47.500000   	1.303824    	1               	;
 1976            	55.000000   	0.276990    	1               	;
 198             	55.000000   	2.570877    	1               	;
 1986            	50.000000   	0.028997    	1               	;
 199             	55.000000   	0.180535    	1               	;
 1990            	55.000000   	0           	                	;
 2               	52.500000   	0.581852    	1               	;
 20              	60.000000   	3.069697    	1               	;
 200             	55.000000   	0.275970    	1               	;
 201             	55.000000   	0.173446    	1               	;
 2013            	60.000000   	0.228809    	1               	;
 2014            	60.000000   	1.773892    	1               	;
 2015            	62.500000   	4.668549    	1               	;
 2016            	60.000000   	0.052791    	1               	;
 2017            	60.000000   	1.809320    	1               	;
 2018            	60.000000   	0.914278    	1               	;
 2019            	56.520000   	2.287009    	1               	;
 202             	55.000000   	0.194827    	1               	;
 2020            	55.000000   	1.176807    	1               	;
 2021            	55.000000   	0.747089    	1               	;
 2022            	55.000000   	0.609152    	1               	;
 2023            	55.000000   	0.711036    	1               	;
 2024            	55.000000   	2.351853    	1               	;
 2025            	55.000000   	2.648683    	1               	;
 2026            	55.000000   	1.530287    	1               	;
 2027            	56.950000   	2.955992    	1               	;
 2028            	57.680000   	5.145931    	1               	;
 2029            	58.280000   	7.433860    	1               	;
 203             	55.000000   	0.467870    	1               	;
 2030            	57.240000   	5.062743    	1               	;
 2031            	59.700000   	4.986600    	1               	;
 2032            	62.500000   	4.301726    	1               	;
 2033            	55.000000   	0           	                	;
 2034            	55.000000   	17.592350   	1               	;
 2035            	55.000000   	121.365946  	1               	;
 2036            	55.000000   	0.278858    	1               	;
 2037            	57.530000   	0           	                	;
 2038            	55.000000   	1.436555    	1               	;
 2039            	62.500000   	0           	                	;
 204             	55.000000   	0.723583    	1               	;
 2040            	59.830000   	0           	                	;
 2041            	57.320000   	0.238396    	1               	;
 205             	55.000000   	0.061754    	1               	;
 206             	55.000000   	0.353340    	1               	;
 207             	57.500000   	0.807537    	1               	;
 208             	55.000000   	0.325283    	1               	;
 209             	55.000000   	2.908264    	1               	;
 21              	60.000000   	1.188140    	1               	;
 210             	47.500000   	0.199876    	1               	;
 211             	55.000000   	0.577799    	1               	;
 212             	55.000000   	0.574913    	1               	;
 213             	55.000000   	0.782551    	1               	;
 214             	55.000000   	0.270022    	1               	;
 215             	55.000000   	0.834389    	1               	;
 2154            	55.000000   	0           	                	;
 2155            	57.250000   	0.584705    	1               	;
 2156            	57.500000   	1.046201    	1               	;
 2157            	50.000000   	0.827549    	1               	;
 2158            	50.000000   	1.769679    	1               	;
 2159            	50.000000   	1.123649    	1               	;
 216             	55.000000   	0.212086    	1               	;
 217             	55.000000   	0.491084    	1               	;
 2171            	50.000000   	1.351453    	1               	;
 2173            	50.000000   	1.104305    	1               	;
 2174            	50.000000   	1.057871    	1               	;
 2175            	50.000000   	1.309424    	1               	;
 218             	55.000000   	0.759261    	1               	;
 219             	59.510000   	1.271128    	1               	;
 22              	60.000000   	1.410019    	1               	;
 220             	55.000000   	0.178093    	1               	;
 223             	57.500000   	0.674287    	1               	;
 224             	57.500000   	0           	                	;
 225             	61.880000   	0.175009    	1               	;
 226             	57.500000   	0.382859    	1               	;
 227             	62.500000   	3.923116    	1               	;
 228             	60.000000   	0.041458    	1               	;
 229             	60.000000   	19.567899   	1               	;
 23              	60.000000   	0.962726    	1               	;
 230             	55.000000   	0.656391    	1               	;
 232             	55.000000   	0.162704    	1               	;
 233             	55.000000   	1.362523    	1               	;
 234             	55.000000   	0.545692    	1               	;
 236             	57.500000   	0.000944    	1               	;
 238             	55.000000   	0.566458    	1               	;
 239             	55.000000   	0.929760    	1               	;
 24              	60.000000   	0.693169    	1               	;
 240             	55.000000   	0.650883    	1               	;
 241             	52.630000   	2.544999    	1               	;
 242             	57.500000   	0.156036    	1               	;
 243             	55.000000   	0           	                	;
 244             	55.000000   	0           	                	;
 245             	55.000000   	0.822274    	1               	;
 246             	55.000000   	0.537039    	1               	;
 247             	57.500000   	3.368018    	1               	;
 248             	55.000000   	2.012006    	1               	;
 249             	55.000000   	0.186229    	1               	;
 25              	60.000000   	1.952342    	1               	;
 250             	55.000000   	0.227497    	1               	;
 251             	55.000000   	0.698877    	1               	;
 252             	55.000000   	1.551947    	1               	;
 253             	55.000000   	1.085781    	1               	;
 254             	55.000000   	0.866309    	1               	;
 255             	55.000000   	0.782973    	1               	;
 256             	55.000000   	0.163328    	1               	;
 257             	55.000000   	2.119363    	1               	;
 258             	55.000000   	0.597412    	1               	;
 259             	55.000000   	0           	                	;
 26              	60.000000   	1.683682    	1               	;
 260             	55.000000   	0.422963    	1               	;
 261             	55.000000   	1.813330    	1               	;
 262             	55.000000   	2.005245    	1               	;
 263             	55.000000   	0           	                	;
 264             	55.000000   	0.068112    	1               	;
 265             	52.590000   	1.293978    	1               	;
 266             	58.150000   	0           	                	;
 267             	51.410000   	0.349566    	1               	;
 269             	50.000000   	0           	                	;
 27              	60.000000   	1.348304    	1               	;
 270             	50.000000   	0           	                	;
 271             	50.000000   	0           	                	;
 272             	57.500000   	1.282166    	1               	;
 273             	50.000000   	0.975259    	1               	;
 274             	51.840000   	1.022276    	1               	;
 275             	50.000000   	1.211978    	1               	;
 276             	50.000000   	0.280415    	1               	;
 277             	50.000000   	0.565636    	1               	;
 278             	50.000000   	0.811078    	1               	;
 279             	50.000000   	0.231905    	1               	;
 28              	60.000000   	0.732378    	1               	;
 280             	49.330000   	0           	                	;
 281             	48.970000   	0           	                	;
 282             	50.000000   	0.709865    	1               	;
 283             	52.370000   	0.246602    	1               	;
 284             	50.810000   	0.309678    	1               	;
 285             	50.160000   	0.664357    	1               	;
 286             	51.800000   	0.053628    	1               	;
 287             	51.670000   	0.000608    	1               	;
 288             	52.160000   	0           	                	;
 289             	50.000000   	0           	                	;
 29              	60.000000   	1.012926    	1               	;
 290             	50.000000   	0.264436    	1               	;
 291             	51.950000   	0.458454    	1               	;
 292             	53.030000   	0           	                	;
 293             	55.000000   	3.253126    	1               	;
 294             	57.000000   	1.394250    	1               	;
 295             	55.000000   	1.887514    	1               	;
 296             	57.500000   	4.410709    	1               	;
 297             	52.550000   	0.857386    	1               	;
 298             	55.000000   	0.201652    	1               	;
 299             	57.500000   	1.238469    	1               	;
 3               	55.000000   	0.471405    	1               	;
 30              	60.000000   	2.359663    	1               	;
 300             	54.440000   	16.479733   	1               	;
 301             	55.000000   	19.674644   	1               	;
 302             	50.000000   	1.394734    	1               	;
 303             	50.000000   	3.583261    	1               	;
 304             	41.650000   	2.949015    	1               	;
 305             	50.000000   	2.074116    	1               	;
 306             	53.410000   	1.845387    	1               	;
 307             	57.500000   	1.491937    	1               	;
 308             	57.500000   	2.096735    	1               	;
 309             	52.360000   	3.259519    	1               	;
 31              	60.000000   	0.286156    	1               	;
 310             	52.500000   	1.064270    	1               	;
 312             	52.650000   	1.099666    	1               	;
 313             	50.000000   	2.122155    	1               	;
 314             	50.000000   	0.421219    	1               	;
 315             	52.500000   	0.547620    	1               	;
 316             	50.000000   	0.479794    	1               	;
 317             	50.000000   	0.772100    	1               	;
 318             	52.500000   	0.308051    	1               	;
 319             	50.000000   	5.478406    	1               	;
 32              	64.180000   	1.325225    	1               	;
 320             	50.000000   	4.573788    	1               	;
 321             	49.740000   	1.840229    	1               	;
 322             	59.540000   	0.830678    	1               	;
 323             	51.940000   	1.291806    	1               	;
 324             	55.000000   	1.144655    	1               	;
 325             	55.000000   	0.462922    	1               	;
 326             	50.000000   	1.270411    	1               	;
 327             	50.760000   	0.794624    	1               	;
 328             	50.000000   	1.879228    	1               	;
 329             	50.350000   	1.928858    	1               	;
 33              	62.500000   	0.427822    	1               	;
 330             	51.150000   	0.043778    	1               	;
 332             	45.000000   	5.294984    	1               	;
 333             	55.860000   	0.413759    	1               	;
 334             	49.050000   	1.986473    	1               	;
 335             	45.000000   	0.880607    	1               	;
 336             	52.430000   	0.570741    	1               	;
 337             	53.740000   	3.034357    	1               	;
 338             	55.000000   	0.873883    	1               	;
 339             	55.000000   	0.186296    	1               	;
 34              	62.360000   	0.604538    	1               	;
 340             	53.410000   	3.251489    	1               	;
 341             	45.000000   	2.072842    	1               	;
 342             	52.500000   	0.760631    	1               	;
 343             	47.610000   	0.546866    	1               	;
 344             	50.510000   	26.529365   	1               	;
 345             	50.000000   	1.481941    	1               	;
 347             	52.500000   	0.851009    	1               	;
 348             	52.500000   	0.550490    	1               	;
 349             	55.000000   	1.707753    	1               	;
 35              	52.500000   	0.734440    	1               	;
 350             	55.000000   	0.953325    	1               	;
 351             	55.000000   	2.167785    	1               	;
 353             	62.500000   	0.154418    	1               	;
 354             	62.500000   	4.662703    	1               	;
 356             	57.190000   	1.748209    	1               	;
 358             	57.470000   	1.754754    	1               	;
 359             	55.420000   	0.262823    	1               	;
 36              	56.850000   	1.462211    	1               	;
 360             	55.000000   	1.219079    	1               	;
 361             	55.000000   	1.974555    	1               	;
 362             	55.000000   	0.981281    	1               	;
 363             	57.500000   	3.407492    	1               	;
 364             	62.990000   	2.397392    	1               	;
 365             	62.780000   	1.044745    	1               	;
 366             	60.000000   	2.375009    	1               	;
 367             	64.430000   	3.129882    	1               	;
 368             	59.800000   	1.191368    	1               	;
 369             	58.340000   	0.687856    	1               	;
 37              	55.000000   	0.431740    	1               	;
 370             	61.200000   	1.217208    	1               	;
 371             	63.630000   	0.752547    	1               	;
 372             	55.000000   	0.734612    	1               	;
 373             	55.000000   	1.627708    	1               	;
 374             	55.000000   	0.455719    	1               	;
 375             	55.000000   	2.280399    	1               	;
 376             	58.360000   	1.401282    	1               	;
 377             	55.650000   	1.175531    	1               	;
 378             	55.000000   	1.434600    	1               	;
 379             	56.090000   	1.817302    	1               	;
 38              	62.500000   	0.507739    	1               	;
 380             	58.780000   	1.777386    	1               	;
 381             	53.030000   	0.962612    	1               	;
 382             	60.560000   	0.818374    	1               	;
 383             	65.150000   	1.928315    	1               	;
 384             	61.230000   	3.719389    	1               	;
 385             	61.140000   	2.850789    	1               	;
 386             	67.500000   	3.922804    	1               	;
 387             	62.500000   	3.487050    	1               	;
 388             	58.890000   	2.233407    	1               	;
 389             	57.260000   	1.252596    	1               	;
 39              	52.500000   	0.243487    	1               	;
 390             	56.200000   	0.515697    	1               	;
 391             	60.510000   	0.599332    	1               	;
 392             	52.500000   	0.250927    	1               	;
 393             	55.000000   	0.126659    	1               	;
 394             	55.000000   	0.949684    	1               	;
 395             	57.170000   	1.432264    	1               	;
 396             	55.200000   	0.871538    	1               	;
 397             	62.500000   	0.906063    	1               	;
 398             	59.930000   	0.631609    	1               	;
 399             	59.820000   	0.280508    	1               	;
 4               	55.000000   	0.692182    	1               	;
 40              	60.000000   	1.196059    	1               	;
 400             	61.700000   	0.242541    	1               	;
 401             	55.650000   	0.661152    	1               	;
 402             	56.640000   	0.501899    	1               	;
 403             	52.500000   	0.678610    	1               	;
 404             	55.000000   	0.914589    	1               	;
 405             	55.000000   	0.116670    	1               	;
 406             	55.000000   	0           	                	;
 407             	55.000000   	0.642890    	1               	;
 408             	59.370000   	1.917866    	1               	;
 409             	59.810000   	4.762786    	1               	;
 41              	60.000000   	0.796966    	1               	;
 410             	61.710000   	4.040409    	1               	;
 411             	58.380000   	2.356956    	1               	;
 412             	56.350000   	1.478319    	1               	;
 413             	59.580000   	1.447320    	1               	;
 414             	55.760000   	0.687600    	1               	;
 415             	55.000000   	0.383498    	1               	;
 416             	55.000000   	0.703196    	1               	;
 417             	55.000000   	0.065654    	1               	;
 418             	57.250000   	0.119856    	1               	;
 419             	55.000000   	0.733827    	1               	;
 42              	60.000000   	0.229897    	1               	;
 420             	55.000000   	1.219142    	1               	;
 421             	55.000000   	1.267525    	1               	;
 422             	55.000000   	0.313931    	1               	;