[TITLE]
Northwest System

[JUNCTIONS]
;ID              	Elev        	Demand      	Pattern         
 1847            	50.850000   	0.282320    	1               	;
 1848            	50.800000   	0.225180    	1               	;
 1849            	58.750000   	0.908926    	1               	;
 1850            	56.920000   	0.666823    	1               	;
 1851            	62.890000   	0.373050    	1               	;
 1852            	61.820000   	0.390175    	1               	;
 1853            	60.000000   	0.313434    	1               	;
 1854            	66.120000   	0.145634    	1               	;
 1855            	61.750000   	1.332539    	1               	;
 1856            	60.000000   	0           	                	;
 1857            	60.000000   	0.001746    	1               	;
 1858            	62.030000   	3.086642    	1               	;
 1859            	60.000000   	0.893319    	1               	;
 1860            	60.000000   	0.143307    	1               	;
 1861            	60.000000   	0           	                	;
 1862            	60.000000   	0.016766    	1               	;
 1863            	60.000000   	0           	                	;
 1864            	60.000000   	0           	                	;
 1865            	58.110000   	1.335686    	1               	;
 1866            	55.000000   	1.741469    	1               	;
 1867            	59.070000   	2.104497    	1               	;
 1868            	57.820000   	1.961970    	1               	;
 1869            	57.360000   	0.796128    	1               	;
 1870            	55.000000   	1.057740    	1               	;
 1871            	60.000000   	0           	                	;
 1872            	60.000000   	0           	                	;
 1873            	60.000000   	2.615482    	1               	;
 1874            	60.000000   	2.520521    	1               	;
 1875            	61.270000   	2.681194    	1               	;
 1876            	57.870000   	0.768743    	1               	;
 1877            	56.480000   	0.133689    	1               	;
 1878            	55.740000   	0           	                	;
 1879            	55.000000   	0.109153    	1               	;
 1880            	55.000000   	0           	                	;
 1907            	60.000000   	1.183514    	1               	;
 1908            	60.000000   	0.443377    	1               	;
 1909            	62.120000   	0.718566    	1               	;
 1910            	50.000000   	1.602581    	1               	;
 1924            	50.000000   	1.563475    	1               	;
 1925            	58.040000   	2.176735    	1               	;
 1927            	55.000000   	0           	                	;
 1928            	55.000000   	0           	                	;
 1929            	55.000000   	0.331111    	1               	;
 1930            	55.000000   	0           	                	;
 1935            	52.010000   	1.591755    	1               	;
 1936            	55.720000   	1.478890    	1               	;
 1937            	52.470000   	0.493052    	1               	;
 1938            	55.000000   	1.898175    	1               	;
 1939            	50.000000   	0.972233    	1               	;
 1943            	59.930000   	1.287503    	1               	;
 1944            	57.500000   	0.825934    	1               	;
 1945            	50.000000   	1.008931    	1               	;
 1946            	58.830000   	1.099113    	1               	;
 1947            	56.210000   	0.693141    	1               	;
 1948            	52.850000   	0.723807    	1               	;
 1949            	54.180000   	0.510472    	1               	;
 1950            	53.560000   	1.322884    	1               	;
 1952            	50.000000   	1.551601    	1               	;
 1954            	55.620000   	0.370896    	1               	;
 1955            	50.000000   	0.250122    	1               	;
 1956            	50.000000   	0.119011    	1               	;
 1957            	50.000000   	0.462548    	1               	;
 1958            	50.370000   	0.340275    	1               	;
 1959            	55.000000   	0.330709    	1               	;
 1960            	50.000000   	1.354894    	1               	;
 1961            	50.000000   	1.423556    	1               	;
 1962            	52.160000   	0.595549    	1               	;
 1963            	53.680000   	0.448792    	1               	;
 1964            	57.500000   	0.112621    	1               	;
 1965            	55.000000   	0.079045    	1               	;
 1966            	55.000000   	0.182153    	1               	;
 1967            	59.120000   	1.252521    	1               	;
 1968            	59.790000   	0.408198    	1               	;
 1969            	57.500000   	0.629810    	1               	;
 1970            	54.970000   	1.670674    	1               	;
 1974            	55.000000   	0.595066    	1               	;
 1975            	47.500000   	1.303824    	1               	;
 1976            	55.000000   	0.276990    	1               	;
 1986            	50.000000   	0.028997    	1               	;
 1990            	55.000000   	0           	                	;
 2013            	60.000000   	0.228809    	1               	;
 2014            	60.000000   	1.773892    	1               	;
 2015            	62.500000   	4.668549    	1               	;
 2016            	60.000000   	0.052791    	1               	;
 2017            	60.000000   	1.809320    	1               	;
 2018            	60.000000   	0.914278    	1               	;
 2019            	56.520000   	2.287009    	1               	;
 2020            	55.000000   	1.176807    	1               	;
 2021            	55.000000   	0.747089    	1               	;
 2022            	55.000000   	0.609152    	1               	;
 2023            	55.000000   	0.711036    	1               	;
 2024            	55.000000   	2.351853    	1               	;
 2025            	55.000000   	2.648683    	1               	;
 2026            	55.000000   	1.530287    	1               	;
 2027            	56.950000   	2.955992    	1               	;
 2028            	57.680000   	5.145931    	1               	;
 2029            	58.280000   	7.433860    	1               	;
 2030            	57.240000   	5.062743    	1               	;
 2031            	59.700000   	4.986600    	1               	;
 2032            	62.500000   	4.301726    	1               	;
 2033            	55.000000   	0           	                	;
 2034            	55.000000   	17.592350   	1               	;
 2035            	55.000000   	121.365946  	1               	;
 2036            	55.000000   	0.278858    	1               	;
 2037            	57.530000   	0           	                	;
 2038            	55.000000   	1.436555    	1               	;
 2039            	62.500000   	0           	                	;
 2040            	59.830000   	0           	                	;
 2041            	57.320000   	0.238396    	1               	;
 2154            	55.000000   	0           	                	;
 2155            	57.250000   	0.584705    	1               	;
 2156            	57.500000   	1.046201    	1               	;
 2157            	50.000000   	0.827549    	1               	;
 2158            	50.000000   	1.769679    	1               	;
 2159            	50.000000   	1.123649    	1               	;
 2171            	50.000000   	1.351453    	1               	;
 2173            	50.000000   	1.104305    	1               	;
 2174            	50.000000   	1.057871    	1               	;
 2175            	50.000000   	1.309424    	1               	;
 4868            	60.000000   	0           	                	;
 4869            	60.000000   	0.223178    	1               	;
 4870            	60.000000   	0.778446    	1               	;
 4871            	60.000000   	1.191703    	1               	;
 4872            	61.760000   	1.188990    	1               	;
 4873            	60.000000   	0.915896    	1               	;
 4874            	60.000000   	1.221878    	1               	;
 4875            	60.000000   	0.359019    	1               	;
 4876            	60.000000   	1.314509    	1               	;
 4877            	60.000000   	0.792012    	1               	;
 4878            	60.000000   	1.380489    	1               	;
 4879            	60.000000   	1.156987    	1               	;
 4880            	60.000000   	0.949381    	1               	;
 4881            	60.000000   	0.732754    	1               	;
 4882            	60.000000   	0.673851    	1               	;
 4883            	60.000000   	0.099953    	1               	;
 4884            	60.000000   	0.117997    	1               	;
 4885            	60.000000   	1.063344    	1               	;
 4886            	60.000000   	1.066827    	1               	;
 4887            	60.000000   	0.679129    	1               	;
 4888            	60.000000   	0.961307    	1               	;
 4889            	60.000000   	0.001293    	1               	;
 4890            	60.000000   	0.307986    	1               	;
 4891            	60.000000   	0.202776    	1               	;
 4892            	60.000000   	0.152815    	1               	;
 4893            	60.000000   	0.808621    	1               	;
 4894            	60.460000   	1.630468    	1               	;
 4895            	52.500000   	1.847147    	1               	;
 4896            	56.940000   	1.647375    	1               	;
 4897            	55.000000   	0.777960    	1               	;
 4898            	55.000000   	0.282938    	1               	;
 4899            	60.000000   	0.203696    	1               	;
 4900            	60.000000   	0.225343    	1               	;
 4901            	60.000000   	0.242116    	1               	;
 4902            	59.460000   	0.454022    	1               	;
 4903            	65.140000   	0.411392    	1               	;
 4904            	60.000000   	0.620056    	1               	;
 4905            	60.000000   	1.395023    	1               	;
 4906            	60.000000   	0.709459    	1               	;
 4907            	64.480000   	1.511326    	1               	;
 4908            	60.000000   	0.678414    	1               	;
 4909            	60.000000   	0.610775    	1               	;
 4910            	65.000000   	1.059470    	1               	;
 4911            	65.000000   	0.518651    	1               	;
 4912            	60.000000   	0.268945    	1               	;
 4913            	60.000000   	0.775541    	1               	;
 4914            	60.000000   	0.977115    	1               	;
 4915            	60.000000   	0.231943    	1               	;
 4916            	60.000000   	0           	                	;
 4917            	60.000000   	0.417289    	1               	;
 4918            	60.000000   	0.227597    	1               	;
 4919            	60.000000   	0.389672    	1               	;
 4920            	60.000000   	0.359175    	1               	;
 4921            	60.000000   	0.862635    	1               	;
 4922            	55.000000   	0           	                	;
 4923            	61.100000   	0.219084    	1               	;
 4930            	58.810000   	0           	                	;
 4931            	58.850000   	0           	                	;
 4932            	58.210000   	0.883572    	1               	;
 4933            	58.850000   	0           	                	;
 4934            	60.000000   	2.605351    	1               	;
 4935            	60.000000   	2.580807    	1               	;
 4936            	60.000000   	0.827689    	1               	;
 4937            	60.000000   	1.089528    	1               	;
 4938            	60.000000   	0.930552    	1               	;
 4939            	60.000000   	0.685027    	1               	;
 4940            	60.000000   	0.242081    	1               	;
 4942            	60.000000   	0           	                	;
 4943            	60.000000   	0.051069    	1               	;
 4944            	60.000000   	0.169596    	1               	;
 4945            	60.000000   	0.746424    	1               	;
 4946            	60.000000   	1.558597    	1               	;
 4947            	60.000000   	2.194253    	1               	;
 4948            	60.000000   	0.772384    	1               	;
 4949            	60.000000   	0           	                	;
 4950            	60.000000   	0.408914    	1               	;
 4951            	60.000000   	0.085449    	1               	;
 4952            	60.000000   	0.119129    	1               	;
 4953            	60.000000   	0.641259    	1               	;
 4954            	60.000000   	0.554086    	1               	;
 4955            	60.000000   	1.314684    	1               	;
 4956            	60.000000   	0.322640    	1               	;
 4957            	60.000000   	0.058496    	1               	;
 4958            	60.000000   	0           	                	;
 4959            	60.000000   	0.358088    	1               	;
 4963            	65.000000   	0.591996    	1               	;
 4964            	65.000000   	0.727653    	1               	;
 4967            	65.000000   	0.820832    	1               	;
 4969            	65.000000   	0           	                	;
 4970            	65.000000   	0.131238    	1               	;
 4971            	65.000000   	1.672643    	1               	;
 4973            	65.000000   	3.616804    	1               	;
 4974            	65.000000   	2.383369    	1               	;
 4975            	65.000000   	1.128528    	1               	;
 4976            	60.030000   	0.846266    	1               	;
 4977            	63.090000   	0.719336    	1               	;
 4978            	59.020000   	1.213783    	1               	;
 4979            	63.130000   	0.433401    	1               	;
 4980            	56.970000   	0.370113    	1               	;
 4981            	60.580000   	0.081701    	1               	;
 4982            	60.000000   	0.283860    	1               	;
 4983            	60.160000   	0.815068    	1               	;
 4984            	62.500000   	1.292922    	1               	;
 4985            	62.500000   	1.251547    	1               	;
 4986            	60.000000   	0.828470    	1               	;
 4987            	60.000000   	1.375270    	1               	;
 4988            	60.000000   	0.752679    	1               	;
 4989            	60.000000   	0.145631    	1               	;
 4990            	60.000000   	2.331283    	1               	;
 4991            	63.950000   	1.088786    	1               	;
 4992            	60.000000   	0           	                	;
 4993            	60.000000   	0.005631    	1               	;
 4994            	60.000000   	0           	                	;
 4995            	65.000000   	0           	                	;
 4998            	65.000000   	0.277403    	1               	;
 4999            	60.000000   	0           	                	;
 5000            	60.000000   	0           	                	;
 5001            	62.500000   	1.400259    	1               	;
 5002            	60.000000   	0.486631    	1               	;
 5003            	60.000000   	0.223112    	1               	;
 5004            	60.000000   	1.502190    	1               	;
 5005            	60.000000   	0.697193    	1               	;
 5006            	60.000000   	0.664207    	1               	;
 5007            	60.000000   	0.295817    	1               	;
 5008            	60.000000   	0.103952    	1               	;
 5009            	60.000000   	0.471307    	1               	;
 5010            	60.000000   	1.279947    	1               	;
 5011            	60.000000   	5.550145    	1               	;
 5012            	65.000000   	0           	                	;
 5013            	60.000000   	1.913938    	1               	;
 5014            	60.000000   	1.215933    	1               	;
 5015            	55.000000   	2.073784    	1               	;
 5016            	55.000000   	3.294082    	1               	;
 5017            	55.000000   	3.182492    	1               	;
 5052            	60.000000   	0           	                	;
 5053            	59.010000   	0.088823    	1               	;
 5076            	55.000000   	2.850881    	1               	;
 5077            	55.000000   	4.122949    	1               	;
 5078            	55.000000   	3.317424    	1               	;
 5079            	55.000000   	1.662488    	1               	;
 5080            	55.000000   	1.499536    	1               	;
 5081            	55.000000   	0.642488    	1               	;
 5082            	55.000000   	0.545902    	1               	;
 5083            	55.000000   	1.504604    	1               	;
 5084            	55.000000   	3.184566    	1               	;
 5085            	55.000000   	2.071825    	1               	;
 5086            	55.000000   	4.903430    	1               	;
 5087            	55.000000   	0.451738    	1               	;
 5088            	55.000000   	4.851603    	1               	;
 5089            	60.660000   	6.498474    	1               	;
 5090            	59.740000   	1.745076    	1               	;
 5091            	57.730000   	0.897136    	1               	;
 5092            	62.500000   	1.768693    	1               	;
 5093            	57.460000   	0.480661    	1               	;
 5094            	60.720000   	0.536645    	1               	;
 5095            	59.750000   	0.096532    	1               	;
 5096            	62.500000   	0.294509    	1               	;
 5097            	62.500000   	1.004837    	1               	;
 5098            	60.000000   	0.322061    	1               	;
 5099            	60.000000   	0.025227    	1               	;
 5100            	60.000000   	0.260322    	1               	;
 5101            	60.000000   	0.847862    	1               	;
 5102            	60.000000   	0.183022    	1               	;
 5103            	60.000000   	0.396512    	1               	;
 5104            	62.500000   	0.551048    	1               	;
 5105            	62.500000   	0.536983    	1               	;
 5106            	60.000000   	0.373649    	1               	;
 5107            	60.000000   	0.823009    	1               	;
 5108            	60.000000   	0.912481    	1               	;
 5109            	60.000000   	0.357731    	1               	;
 5110            	63.810000   	0.289744    	1               	;
 5111            	60.000000   	0.658076    	1               	;
 5112            	60.000000   	0.847315    	1               	;
 5113            	60.000000   	0           	                	;
 5114            	60.000000   	0.747631    	1               	;
 5115            	60.000000   	1.338417    	1               	;
 5116            	62.750000   	2.204293    	1               	;
 5117            	60.000000   	0.836256    	1               	;
 5118            	60.000000   	1.143336    	1               	;
 5119            	60.000000   	1.308301    	1               	;
 5120            	64.380000   	2.047077    	1               	;
 5121            	60.000000   	1.971113    	1               	;
 5122            	60.000000   	1.257962    	1               	;
 5123            	60.000000   	1.424025    	1               	;
 5124            	55.000000   	1.810979    	1               	;
 5125            	55.000000   	1.725570    	1               	;
 5126            	55.000000   	4.288869    	1               	;
 5127            	55.000000   	4.675296    	1               	;
 5128            	55.000000   	1.005295    	1               	;
 5129            	55.000000   	4.492388    	1               	;
 5130            	55.000000   	2.060930    	1               	;
 5131            	55.000000   	1.888328    	1               	;
 5132            	55.000000   	0.281718    	1               	;
 5133            	55.000000   	1.324241    	1               	;
 5134            	55.000000   	0.878563    	1               	;
 5135            	55.000000   	1.583059    	1               	;
 5136            	55.000000   	2.394909    	1               	;
 5137            	55.000000   	1.211511    	1               	;
 5138            	55.000000   	1.488295    	1               	;
 5139            	55.000000   	1.852460    	1               	;
 5140            	55.000000   	0.744943    	1               	;
 5141            	55.000000   	1.253781    	1               	;
 5142            	62.180000   	0.718828    	1               	;
 5143            	60.910000   	0.319161    	1               	;
 5144            	60.590000   	0.001369    	1               	;
 5145            	59.650000   	0           	                	;
 5146            	55.000000   	2.289626    	1               	;
 5147            	55.000000   	2.522774    	1               	;
 5148            	55.000000   	4.475460    	1               	;
 5149            	55.000000   	3.379902    	1               	;
 5150            	60.000000   	0.644252    	1               	;
 5151            	60.000000   	2.687328    	1               	;
 5152            	62.500000   	2.780586    	1               	;
 5153            	60.000000   	0.456522    	1               	;
 5154            	60.000000   	0.010797    	1               	;
 5155            	60.000000   	0.373783    	1               	;
 5156            	60.000000   	1.707757    	1               	;
 5157            	60.000000   	0.231960    	1               	;
 5158            	60.000000   	0.393332    	1               	;
 5159            	60.000000   	1.274063    	1               	;
 5160            	60.000000   	1.029177    	1               	;
 5161            	60.000000   	0.895345    	1               	;
 5162            	60.000000   	1.617453    	1               	;
 5163            	61.850000   	1.363278    	1               	;
 5164            	56.320000   	5.240607    	1               	;
 5165            	55.000000   	2.807218    	1               	;
 5166            	55.000000   	0.788108    	1               	;
 5167            	55.000000   	2.192975    	1               	;
 5168            	55.000000   	0.998050    	1               	;
 5169            	55.000000   	0.441251    	1               	;
 5170            	55.000000   	0.639700    	1               	;
 5171            	60.000000   	0.232837    	1               	;
 5172            	60.000000   	0.277996    	1               	;
 5173            	60.000000   	0.055725    	1               	;
 5174            	60.000000   	0.300739    	1               	;
 5175            	60.000000   	0.771515    	1               	;
 5176            	60.000000   	0.359596    	1               	;
 5177            	60.000000   	0.054306    	1               	;
 5178            	60.000000   	0.076090    	1               	;
 5179            	60.000000   	0.088563    	1               	;
 5180            	60.000000   	0.070097    	1               	;
 5181            	60.000000   	2.347249    	1               	;
 5182            	60.000000   	0.874568    	1               	;
 5183            	57.730000   	1.554275    	1               	;
 5184            	52.500000   	3.509150    	1               	;
 5185            	55.000000   	2.068205    	1               	;
 5186            	62.500000   	0.866579    	1               	;
 5187            	57.810000   	0.823856    	1               	;
 5188            	59.960000   	0.579200    	1               	;
 5189            	58.030000   	0           	                	;
 5190            	62.500000   	0           	                	;
 5191            	62.500000   	0           	                	;
 5192            	60.440000   	0           	                	;
 5193            	61.400000   	7.174398    	1               	;
 5194            	57.910000   	0           	                	;
 5195            	55.000000   	0           	                	;
 5196            	60.000000   	0.883413    	1               	;
 5197            	60.000000   	0.095332    	1               	;
 5198            	60.000000   	1.331721    	1               	;
 5199            	60.000000   	0.730294    	1               	;
 5200            	60.000000   	0.815972    	1               	;
 5201            	60.000000   	0.622583    	1               	;
 5202            	60.000000   	0.616367    	1               	;
 5203            	60.000000   	0           	                	;
 5204            	60.000000   	0.257421    	1               	;
 5205            	60.000000   	0.521857    	1               	;
 5206            	60.000000   	1.320154    	1               	;
 5207            	60.000000   	0.968178    	1               	;
 5208            	60.000000   	1.106106    	1               	;
 5209            	60.000000   	0.227122    	1               	;
 5210            	60.000000   	1.278866    	1               	;
 5211            	60.000000   	0.289962    	1               	;
 5212            	60.000000   	0.689268    	1               	;
 5213            	60.000000   	0.543185    	1               	;
 5214            	60.000000   	0.377087    	1               	;
 5215            	60.000000   	0.713759    	1               	;
 5216            	55.800000   	1.825850    	1               	;
 5217            	60.000000   	1.568544    	1               	;
 5218            	60.000000   	1.477693    	1               	;
 5219            	60.000000   	1.900151    	1               	;
 5220            	55.000000   	0.924443    	1               	;
 5221            	55.000000   	0.100307    	1               	;
 5222            	57.640000   	1.109520    	1               	;
 5223            	60.000000   	1.551340    	1               	;
 5224            	60.000000   	1.405910    	1               	;
 5225            	60.000000   	0.088527    	1               	;
 5226            	60.000000   	1.088899    	1               	;
 5227            	60.000000   	0           	                	;
 5228            	60.000000   	0.065512    	1               	;
 5229            	60.000000   	0           	                	;
 5230            	55.000000   	0.052472    	1               	;
 5231            	55.000000   	0.002433    	1               	;
 5232            	55.000000   	0.338633    	1               	;
 5233            	55.000000   	0           	                	;
 5234            	55.000000   	0           	                	;
 5235            	55.000000   	0           	                	;
 5236            	55.000000   	0           	                	;
 5253            	55.000000   	0.553825    	1               	;
 5254            	55.000000   	0.904676    	1               	;
 5255            	55.000000   	0.901039    	1               	;
 5256            	55.000000   	0.939623    	1               	;
 5257            	55.000000   	1.988187    	1               	;
 5258            	55.000000   	0.293559    	1               	;
 5259            	60.790000   	0           	                	;
 5260            	60.810000   	0           	                	;
 5261            	60.430000   	0           	                	;
 5262            	58.980000   	0           	                	;
 5263            	57.600000   	0.070478    	1               	;
 5264            	55.000000   	1.060784    	1               	;
 5265            	55.000000   	0.467565    	1               	;
 5266            	55.000000   	0.371091    	1               	;
 5267            	55.000000   	0.604939    	1               	;
 5268            	55.000000   	1.426109    	1               	;
 5269            	55.000000   	1.526261    	1               	;
 5270            	55.000000   	0.258248    	1               	;
 5271            	55.000000   	1.714961    	1               	;
 5272            	55.000000   	2.068380    	1               	;
 5273            	55.000000   	2.221471    	1               	;
 5274            	55.000000   	1.627092    	1               	;
 5275            	55.000000   	1.908591    	1               	;
 5279            	55.000000   	0.000272    	1               	;
 5380            	59.490000   	4.429086    	1               	;
 5381            	57.440000   	0           	                	;
 5382            	57.900000   	6.910445    	1               	;
 5383            	57.950000   	0.387682    	1               	;
 5384            	62.500000   	1.063530    	1               	;
 5385            	56.560000   	1.293406    	1               	;
 5386            	56.230000   	0.283310    	1               	;
 5387            	57.580000   	2.991221    	1               	;
 5388            	57.230000   	3.233941    	1               	;
 5389            	55.000000   	0.648583    	1               	;
 5390            	58.730000   	0           	                	;
 5391            	58.730000   	0           	                	;
 5392            	58.300000   	5.306403    	1               	;
 5393            	57.470000   	5.974211    	1               	;
 5394            	55.000000   	1.886794    	1               	;
 5395            	55.000000   	1.161985    	1               	;
 5396            	55.000000   	0           	                	;
 5397            	55.000000   	0           	                	;
 5398            	55.000000   	0.137486    	1               	;
 5399            	55.000000   	0           	                	;
 5400            	55.000000   	0           	                	;
 5401            	57.660000   	0.238917    	1               	;
 5402            	56.590000   	4.122023    	1               	;
 5403            	55.000000   	3.876824    	1               	;
 5404            	55.000000   	0.895923    	1               	;
 5405            	55.000000   	1.584139    	1               	;
 5406            	62.560000   	4.151252    	1               	;